data_image0
_cell_length_a       6.79278
_cell_length_b       6.79278
_cell_length_c       6.79278
_cell_angle_alpha    99.5911
_cell_angle_beta     99.5911
_cell_angle_gamma    99.5911

_symmetry_space_group_name_H-M    P 1
_symmetry_int_tables_number       1

loop_
  _symmetry_equiv_pos_as_xyz
  'x, y, z'

loop_
  _atom_site_label
  _atom_site_occupancy
  _atom_site_fract_x
  _atom_site_fract_y
  _atom_site_fract_z
  _atom_site_thermal_displace_type
  _atom_site_B_iso_or_equiv
  _atom_site_type_symbol
  Ce1      1.0000 0.00000  0.00000  0.00000  Biso   1.000  Ce
  Ce2      1.0000 0.13794  0.60078  0.30003  Biso   1.000  Ce
  Ce3      1.0000 0.86206  0.39922  0.69997  Biso   1.000  Ce
  Ce4      1.0000 0.30004  0.13794  0.60078  Biso   1.000  Ce
  Ce5      1.0000 0.69997  0.86206  0.39922  Biso   1.000  Ce
  Ce6      1.0000 0.60078  0.30003  0.13794  Biso   1.000  Ce
  Ce7      1.0000 0.39922  0.69996  0.86206  Biso   1.000  Ce
  O1       1.0000 0.92978  0.07088  0.67892  Biso   1.000  O
  O2       1.0000 0.07022  0.92912  0.32108  Biso   1.000  O
  O3       1.0000 0.07088  0.67892  0.92978  Biso   1.000  O
  O4       1.0000 0.92912  0.32108  0.07022  Biso   1.000  O
  O5       1.0000 0.41747  0.82245  0.56774  Biso   1.000  O
  O6       1.0000 0.17755  0.43226  0.58253  Biso   1.000  O
  O7       1.0000 0.82246  0.56774  0.41747  Biso   1.000  O
  O8       1.0000 0.32108  0.07022  0.92912  Biso   1.000  O
  O9       1.0000 0.56774  0.41747  0.82246  Biso   1.000  O
  O10      1.0000 0.43226  0.58253  0.17755  Biso   1.000  O
  O11      1.0000 0.58253  0.17755  0.43226  Biso   1.000  O
  O12      1.0000 0.67892  0.92978  0.07088  Biso   1.000  O
